.subckt varactor 1 2

* port 1 - anode
* port 2 - cathode

.param Cjo=85p
.param Vj=10
.param M=4.4
.param Rs=1.1
.param Cp=2.6p
.param Ls=0.8n

.model DiodeM D(
	Cjo=Cjo 
	M=M 
	Vj=Vj 
	Bv=0
	Isr=0
	Nr=2
)

Ls 1 3 Ls
Rs 3 4 Rs
Cp 3 2 Cp
Diode 4 2 DiodeM

.ends
